Version 4.1
SHEET 1 2812 680
WIRE 1920 -176 1904 -176
WIRE 1920 -96 1920 -176
WIRE 2016 -96 1920 -96
WIRE 1920 -64 1920 -96
WIRE 2096 16 2096 -96
WIRE 2096 16 2048 16
WIRE 2128 16 2096 16
WIRE 2320 16 2192 16
WIRE 2432 16 2400 16
WIRE 2512 16 2432 16
WIRE 2704 16 2512 16
WIRE 2192 48 2192 16
WIRE 2432 48 2432 16
WIRE 2512 64 2512 16
WIRE 2144 80 2048 80
WIRE 2096 144 2048 144
WIRE 2096 160 2096 144
WIRE 2144 176 2144 80
WIRE 2512 176 2512 144
WIRE 2512 176 2144 176
WIRE 2512 192 2512 176
WIRE 1920 304 1920 224
WIRE 2096 304 1920 304
WIRE 2192 304 2192 112
WIRE 2192 304 2096 304
WIRE 2512 304 2512 272
WIRE 2512 304 2192 304
WIRE 2512 320 2512 304
FLAG 2432 112 0
FLAG 2512 320 0
FLAG 1904 -176 IN
IOPIN 1904 -176 In
FLAG 2704 16 OUT
IOPIN 2704 16 Out
SYMBOL PowerProducts\\LT1070 1920 80 R0
SYMATTR InstName U1
SYMBOL diode 2128 32 R270
WINDOW 0 32 32 VTop 2
WINDOW 3 0 32 VBottom 2
SYMATTR InstName D1
SYMBOL cap 2176 48 R0
SYMATTR InstName C1
SYMATTR Value 1000µ
SYMBOL ind 2304 32 R270
WINDOW 0 32 56 VTop 2
WINDOW 3 5 56 VBottom 2
SYMATTR InstName L1
SYMATTR Value 10µ
SYMBOL cap 2416 48 R0
SYMATTR InstName C2
SYMATTR Value 100µ
SYMBOL res 2496 48 R0
SYMATTR InstName R1
SYMATTR Value 8.7K
SYMATTR SpiceLine tol=1
SYMBOL res 2496 176 R0
SYMATTR InstName R2
SYMATTR Value 1.24k
SYMATTR SpiceLine tol=1
SYMBOL res 2080 144 R0
SYMATTR InstName R3
SYMATTR Value 1k
SYMBOL cap 2080 240 R0
SYMATTR InstName C3
SYMATTR Value 1µ
SYMBOL ind 2000 -80 R270
WINDOW 0 32 56 VTop 2
WINDOW 3 5 56 VBottom 2
SYMATTR InstName L2
SYMATTR Value 150µ
TEXT 1784 344 Left 2 !.tran 10s
