Version 4.1
SHEET 1 1856 1124
WIRE 1088 -224 -32 -224
WIRE 736 -192 672 -192
WIRE 848 -192 800 -192
WIRE 672 -80 672 -192
WIRE 672 -80 288 -80
WIRE 736 -80 672 -80
WIRE 848 -80 848 -192
WIRE 848 -80 816 -80
WIRE 864 -80 848 -80
WIRE 1088 -80 1088 -224
WIRE 1088 -80 960 -80
WIRE 944 16 944 -32
WIRE 944 16 688 16
WIRE 288 48 288 -80
WIRE 288 48 16 48
WIRE 16 64 16 48
WIRE 16 64 -240 64
WIRE 288 80 288 48
WIRE 448 80 288 80
WIRE 16 112 16 64
WIRE 448 128 448 80
WIRE 464 128 448 128
WIRE 592 128 576 128
WIRE 688 128 688 16
WIRE 688 128 672 128
WIRE 832 128 688 128
WIRE 1008 128 928 128
WIRE 1056 128 1008 128
WIRE -240 176 -240 144
WIRE -240 176 -368 176
WIRE 288 192 288 80
WIRE -240 208 -240 176
WIRE 1008 208 1008 128
WIRE 1008 208 752 208
WIRE -368 224 -368 176
WIRE 880 224 880 192
WIRE -32 240 -32 -224
WIRE 16 240 16 192
WIRE 16 240 -32 240
WIRE 592 240 592 128
WIRE 608 240 592 240
WIRE 752 240 752 208
WIRE 752 240 672 240
WIRE 16 256 16 240
WIRE -368 320 -368 304
WIRE -240 320 -240 288
WIRE -240 320 -368 320
WIRE -32 320 -32 240
WIRE -32 320 -240 320
WIRE 880 352 880 304
WIRE 288 432 288 304
WIRE 288 432 192 432
WIRE 320 432 288 432
WIRE 192 448 192 432
WIRE 320 448 320 432
WIRE 880 464 880 432
WIRE 176 576 112 576
WIRE 192 576 192 512
WIRE 192 576 176 576
WIRE 224 576 192 576
WIRE 192 752 192 576
WIRE 256 752 192 752
WIRE 320 752 320 704
WIRE 320 768 320 752
WIRE 336 768 320 768
WIRE 432 768 416 768
WIRE 592 768 528 768
WIRE 336 864 336 768
WIRE 352 864 336 864
WIRE 416 864 416 768
WIRE 176 896 176 576
WIRE 192 896 176 896
WIRE 320 896 320 768
WIRE 320 896 272 896
WIRE 480 992 480 912
WIRE 480 1104 480 1072
FLAG 16 256 0
FLAG 480 1104 0
FLAG 592 768 0
FLAG 112 576 0
FLAG 880 464 0
FLAG 1056 128 0
SYMBOL voltage 16 96 R0
WINDOW 123 0 0 Left 0
WINDOW 39 0 0 Left 0
SYMATTR InstName 18650
SYMATTR Value 3.7
SYMBOL lt3757_boost_converter 288 240 R90
SYMATTR InstName 0-5v_to_5v_DC-DC_booster
SYMBOL PowerProducts\\LT1117-3.3 320 576 R90
SYMATTR InstName U2
SYMBOL cap 320 736 R90
WINDOW 0 0 32 VBottom 2
WINDOW 3 32 32 VTop 2
SYMATTR InstName C1
SYMATTR Value 22µ
SYMBOL npn 432 832 R270
SYMATTR InstName Q1
SYMATTR Value 2N2222
SYMBOL res 464 816 R0
SYMATTR InstName R2
SYMATTR Value 330
SYMBOL voltage 480 976 R0
WINDOW 123 0 0 Left 0
WINDOW 39 0 0 Left 0
SYMATTR InstName ESP_PIN
SYMATTR Value 3.3
SYMBOL res 320 752 M90
WINDOW 0 0 56 VBottom 2
WINDOW 3 32 56 VTop 2
SYMATTR InstName GPS
SYMATTR Value 47
SYMBOL res 176 880 M90
WINDOW 0 0 56 VBottom 2
WINDOW 3 32 56 VTop 2
SYMATTR InstName ESP12
SYMATTR Value 16.5
SYMBOL cap 208 512 R180
WINDOW 0 24 56 Left 2
WINDOW 3 24 8 Left 2
SYMATTR InstName C2
SYMATTR Value 10µ
SYMBOL nmos 864 -32 R270
SYMATTR InstName M2
SYMATTR Value IRF1404
SYMBOL res 832 -96 R90
WINDOW 0 0 56 VBottom 2
WINDOW 3 32 56 VTop 2
SYMATTR InstName SIM800L
SYMATTR Value 2
SYMBOL 10vBooster 512 128 R0
SYMATTR InstName X1
SYMBOL res 688 112 R90
WINDOW 0 0 56 VBottom 2
WINDOW 3 32 56 VTop 2
SYMATTR InstName R4
SYMATTR Value 14.5K
SYMBOL voltage 880 336 R0
WINDOW 123 0 0 Left 0
WINDOW 39 0 0 Left 0
SYMATTR InstName ESP_PIN1
SYMATTR Value 0
SYMBOL npn 832 192 R270
SYMATTR InstName Q2
SYMATTR Value 2N2222
SYMBOL res 864 208 R0
SYMATTR InstName Rb
SYMATTR Value 660
SYMBOL res -256 48 R0
SYMATTR InstName Rd1
SYMATTR Value 15K
SYMBOL res -256 192 R0
SYMATTR InstName Rd2
SYMATTR Value 4.7K
SYMBOL res -352 208 M0
SYMATTR InstName ADC_PIN
SYMATTR Value 20K
SYMBOL cap 672 224 R90
WINDOW 0 0 32 VBottom 2
WINDOW 3 32 32 VTop 2
SYMATTR InstName C3
SYMATTR Value 330µ
SYMBOL cap 800 -208 R90
WINDOW 0 0 32 VBottom 2
WINDOW 3 32 32 VTop 2
SYMATTR InstName C4
SYMATTR Value 5140µ
SYMBOL cap 416 848 R90
WINDOW 0 0 32 VBottom 2
WINDOW 3 32 32 VTop 2
SYMATTR InstName C5
SYMATTR Value 47µ
TEXT -16 280 Left 2 !.tran 20s
TEXT 624 768 Left 2 ;This comes back to the gnd of the 5v booster .
TEXT -432 600 Left 2 ;This comes back to the gnd of the 5v booster .
TEXT 1120 128 Left 2 ;This comes back to the gnd of the 10v booster .
